<?xml version="1.0" encoding="UTF-8"?>

<!-- generated on 2025-12-10 11:32:23 by Eclipse SUMO duarouter Version 1.12.0
<configuration xmlns:xsi="http://www.w3.org/2001/XMLSchema-instance" xsi:noNamespaceSchemaLocation="http://sumo.dlr.de/xsd/duarouterConfiguration.xsd">

    <input>
        <net-file value="riyadh.net.xml"/>
        <route-files value="riyadh.trips.xml"/>
    </input>

    <output>
        <output-file value="riyadh.trips.xml.tmp"/>
        <write-trips value="true"/>
    </output>

    <time>
        <begin value="0"/>
        <end value="3600"/>
    </time>

    <report>
        <no-warnings value="true"/>
        <ignore-errors value="true"/>
        <no-step-log value="true"/>
    </report>

</configuration>
-->

<routes xmlns:xsi="http://www.w3.org/2001/XMLSchema-instance" xsi:noNamespaceSchemaLocation="http://sumo.dlr.de/xsd/routes_file.xsd">
    <vType id="veh_passenger" vClass="passenger"/>
    <trip id="veh1" type="veh_passenger" depart="2.00" departLane="best" departSpeed="max" from="227820418#1" to="-227821125#8"/>
    <trip id="veh2" type="veh_passenger" depart="4.00" departLane="best" departSpeed="max" from="227821125#0" to="-227821074#1"/>
    <trip id="veh4" type="veh_passenger" depart="8.00" departLane="best" departSpeed="max" from="-227820382#0" to="227820413#0"/>
    <trip id="veh5" type="veh_passenger" depart="10.00" departLane="best" departSpeed="max" from="-227821129#3" to="-227821113#1"/>
    <trip id="veh6" type="veh_passenger" depart="12.00" departLane="best" departSpeed="max" from="227821129#0" to="-783987826"/>
    <trip id="veh7" type="veh_passenger" depart="14.00" departLane="best" departSpeed="max" from="669603588" to="227821084#1"/>
    <trip id="veh8" type="veh_passenger" depart="16.00" departLane="best" departSpeed="max" from="227820411#4" to="227820415#0"/>
    <trip id="veh11" type="veh_passenger" depart="22.00" departLane="best" departSpeed="max" from="-227821053#1" to="-227821102#2"/>
    <trip id="veh12" type="veh_passenger" depart="24.00" departLane="best" departSpeed="max" from="592378793#1" to="-227820348"/>
    <trip id="veh13" type="veh_passenger" depart="26.00" departLane="best" departSpeed="max" from="227821102#2" to="783932774#0"/>
    <trip id="veh14" type="veh_passenger" depart="28.00" departLane="best" departSpeed="max" from="227821112#0" to="-227821066#3"/>
    <trip id="veh15" type="veh_passenger" depart="30.00" departLane="best" departSpeed="max" from="-227820419#0" to="-227820365#1"/>
    <trip id="veh16" type="veh_passenger" depart="32.00" departLane="best" departSpeed="max" from="-227821060#0" to="-227821080#0"/>
    <trip id="veh18" type="veh_passenger" depart="36.00" departLane="best" departSpeed="max" from="227821126#4" to="227820417#3"/>
    <trip id="veh19" type="veh_passenger" depart="38.00" departLane="best" departSpeed="max" from="-227821132#5" to="227820402#4"/>
    <trip id="veh20" type="veh_passenger" depart="40.00" departLane="best" departSpeed="max" from="227820418#6" to="227820417#9"/>
    <trip id="veh21" type="veh_passenger" depart="42.00" departLane="best" departSpeed="max" from="227820399#0" to="227820397#4"/>
    <trip id="veh22" type="veh_passenger" depart="44.00" departLane="best" departSpeed="max" from="-227821080#2" to="227820411#3"/>
    <trip id="veh24" type="veh_passenger" depart="48.00" departLane="best" departSpeed="max" from="-227821128#2" to="-227821113#4"/>
    <trip id="veh25" type="veh_passenger" depart="50.00" departLane="best" departSpeed="max" from="-783987829#0" to="227821113#3"/>
    <trip id="veh27" type="veh_passenger" depart="54.00" departLane="best" departSpeed="max" from="227820325#2" to="744461302"/>
    <trip id="veh33" type="veh_passenger" depart="66.00" departLane="best" departSpeed="max" from="-227820331#1" to="-227820325#8"/>
    <trip id="veh34" type="veh_passenger" depart="68.00" departLane="best" departSpeed="max" from="227820411#4" to="-227820325#8"/>
    <trip id="veh35" type="veh_passenger" depart="70.00" departLane="best" departSpeed="max" from="1247623521" to="227820352#1"/>
    <trip id="veh36" type="veh_passenger" depart="72.00" departLane="best" departSpeed="max" from="40925150#4" to="-1307185580"/>
    <trip id="veh37" type="veh_passenger" depart="74.00" departLane="best" departSpeed="max" from="227820417#5" to="-227821112#1"/>
    <trip id="veh38" type="veh_passenger" depart="76.00" departLane="best" departSpeed="max" from="-227820387#1" to="-227821065#0"/>
    <trip id="veh39" type="veh_passenger" depart="78.00" departLane="best" departSpeed="max" from="-227820408#4" to="227820404#2"/>
    <trip id="veh42" type="veh_passenger" depart="84.00" departLane="best" departSpeed="max" from="-227820417#5" to="227820418#3"/>
    <trip id="veh43" type="veh_passenger" depart="86.00" departLane="best" departSpeed="max" from="-227820328#2" to="227820397#4"/>
    <trip id="veh44" type="veh_passenger" depart="88.00" departLane="best" departSpeed="max" from="40925149#1" to="227820325#10"/>
    <trip id="veh45" type="veh_passenger" depart="90.00" departLane="best" departSpeed="max" from="227820387#2" to="227821121#3"/>
    <trip id="veh46" type="veh_passenger" depart="92.00" departLane="best" departSpeed="max" from="227821065#0" to="227820345"/>
    <trip id="veh47" type="veh_passenger" depart="94.00" departLane="best" departSpeed="max" from="-227820372#0" to="-227821081#1"/>
    <trip id="veh48" type="veh_passenger" depart="96.00" departLane="best" departSpeed="max" from="227820417#10" to="-227820361#2"/>
    <trip id="veh49" type="veh_passenger" depart="98.00" departLane="best" departSpeed="max" from="227820413#5" to="1307019214"/>
    <trip id="veh50" type="veh_passenger" depart="100.00" departLane="best" departSpeed="max" from="-227821124#3" to="227820326"/>
    <trip id="veh51" type="veh_passenger" depart="102.00" departLane="best" departSpeed="max" from="227820418#2" to="227821113#3"/>
    <trip id="veh52" type="veh_passenger" depart="104.00" departLane="best" departSpeed="max" from="334227209#3" to="-227820361#1"/>
    <trip id="veh53" type="veh_passenger" depart="106.00" departLane="best" departSpeed="max" from="-227821130#0" to="-678571406#0"/>
    <trip id="veh54" type="veh_passenger" depart="108.00" departLane="best" departSpeed="max" from="-227821113#1" to="-227821123#3"/>
    <trip id="veh55" type="veh_passenger" depart="110.00" departLane="best" departSpeed="max" from="-227821128#1" to="227821114#3"/>
    <trip id="veh56" type="veh_passenger" depart="112.00" departLane="best" departSpeed="max" from="744461301" to="-227821089#2"/>
    <trip id="veh57" type="veh_passenger" depart="114.00" departLane="best" departSpeed="max" from="678579688#1" to="227820389#0"/>
    <trip id="veh59" type="veh_passenger" depart="118.00" departLane="best" departSpeed="max" from="227821100" to="-227821102#1"/>
    <trip id="veh60" type="veh_passenger" depart="120.00" departLane="best" departSpeed="max" from="227821129#0" to="-227822023#0"/>
    <trip id="veh61" type="veh_passenger" depart="122.00" departLane="best" departSpeed="max" from="644441921" to="569578577#5"/>
    <trip id="veh62" type="veh_passenger" depart="124.00" departLane="best" departSpeed="max" from="-334227209#3" to="1325620889#0"/>
    <trip id="veh63" type="veh_passenger" depart="126.00" departLane="best" departSpeed="max" from="227820415#5" to="-227821129#0"/>
    <trip id="veh64" type="veh_passenger" depart="128.00" departLane="best" departSpeed="max" from="227821065#1" to="221417208"/>
    <trip id="veh65" type="veh_passenger" depart="130.00" departLane="best" departSpeed="max" from="227820382#0" to="990288006"/>
    <trip id="veh66" type="veh_passenger" depart="132.00" departLane="best" departSpeed="max" from="-227821132#10" to="-227820406#0"/>
    <trip id="veh67" type="veh_passenger" depart="134.00" departLane="best" departSpeed="max" from="227820404#0" to="227822066#1"/>
    <trip id="veh68" type="veh_passenger" depart="136.00" departLane="best" departSpeed="max" from="227820349" to="221417271#2"/>
    <trip id="veh69" type="veh_passenger" depart="138.00" departLane="best" departSpeed="max" from="227820404#4" to="-783987825"/>
    <trip id="veh71" type="veh_passenger" depart="142.00" departLane="best" departSpeed="max" from="-334227209#2" to="-227821089#0"/>
    <trip id="veh72" type="veh_passenger" depart="144.00" departLane="best" departSpeed="max" from="227821132#6" to="-227822015#1"/>
    <trip id="veh73" type="veh_passenger" depart="146.00" departLane="best" departSpeed="max" from="-227820406#1" to="227820401#0"/>
    <trip id="veh74" type="veh_passenger" depart="148.00" departLane="best" departSpeed="max" from="-227821080#2" to="227821123#5"/>
    <trip id="veh78" type="veh_passenger" depart="156.00" departLane="best" departSpeed="max" from="-1307019214" to="227820325#9"/>
    <trip id="veh80" type="veh_passenger" depart="160.00" departLane="best" departSpeed="max" from="-227820413#4" to="227820416#2"/>
    <trip id="veh82" type="veh_passenger" depart="164.00" departLane="best" departSpeed="max" from="227820382#1" to="227820398#2"/>
    <trip id="veh83" type="veh_passenger" depart="166.00" departLane="best" departSpeed="max" from="227821126#0" to="227821114#3"/>
    <trip id="veh84" type="veh_passenger" depart="168.00" departLane="best" departSpeed="max" from="-227820410#4" to="227820417#6"/>
    <trip id="veh85" type="veh_passenger" depart="170.00" departLane="best" departSpeed="max" from="-227821122#6" to="227821122#0"/>
    <trip id="veh86" type="veh_passenger" depart="172.00" departLane="best" departSpeed="max" from="227820417#5" to="-1038166874"/>
    <trip id="veh87" type="veh_passenger" depart="174.00" departLane="best" departSpeed="max" from="-227820389#0" to="227820334#10"/>
    <trip id="veh89" type="veh_passenger" depart="178.00" departLane="best" departSpeed="max" from="-227820402#1" to="221417230#1"/>
    <trip id="veh91" type="veh_passenger" depart="182.00" departLane="best" departSpeed="max" from="227820339" to="-227820399#1"/>
    <trip id="veh92" type="veh_passenger" depart="184.00" departLane="best" departSpeed="max" from="-227820346" to="-227820402#2"/>
    <trip id="veh93" type="veh_passenger" depart="186.00" departLane="best" departSpeed="max" from="227820395#1" to="-334227209#3"/>
    <trip id="veh94" type="veh_passenger" depart="188.00" departLane="best" departSpeed="max" from="-227821079#0" to="227821080#2"/>
    <trip id="veh95" type="veh_passenger" depart="190.00" departLane="best" departSpeed="max" from="-227820357#0" to="-678579688#1"/>
    <trip id="veh96" type="veh_passenger" depart="192.00" departLane="best" departSpeed="max" from="1307185580" to="227820364#0"/>
    <trip id="veh97" type="veh_passenger" depart="194.00" departLane="best" departSpeed="max" from="990288005#0" to="227821084#1"/>
    <trip id="veh98" type="veh_passenger" depart="196.00" departLane="best" departSpeed="max" from="-227821066#2" to="-783987825"/>
    <trip id="veh99" type="veh_passenger" depart="198.00" departLane="best" departSpeed="max" from="-227820419#7" to="227820417#5"/>
    <trip id="veh100" type="veh_passenger" depart="200.00" departLane="best" departSpeed="max" from="227821122#8" to="678568106"/>
    <trip id="veh101" type="veh_passenger" depart="202.00" departLane="best" departSpeed="max" from="227820417#6" to="227820331#0"/>
    <trip id="veh102" type="veh_passenger" depart="204.00" departLane="best" departSpeed="max" from="1327866462#1" to="227821081#0"/>
    <trip id="veh103" type="veh_passenger" depart="206.00" departLane="best" departSpeed="max" from="1457102477#1" to="-227820415#0"/>
    <trip id="veh104" type="veh_passenger" depart="208.00" departLane="best" departSpeed="max" from="227821066#2" to="221417239#0"/>
    <trip id="veh106" type="veh_passenger" depart="212.00" departLane="best" departSpeed="max" from="-227820409#0" to="-227821130#5"/>
    <trip id="veh107" type="veh_passenger" depart="214.00" departLane="best" departSpeed="max" from="227820406#5" to="-227821998#1"/>
    <trip id="veh108" type="veh_passenger" depart="216.00" departLane="best" departSpeed="max" from="783987830#0" to="227821130#5"/>
    <trip id="veh110" type="veh_passenger" depart="220.00" departLane="best" departSpeed="max" from="-227821072" to="227820406#3"/>
    <trip id="veh111" type="veh_passenger" depart="222.00" departLane="best" departSpeed="max" from="-227820413#0" to="227821058"/>
    <trip id="veh112" type="veh_passenger" depart="224.00" departLane="best" departSpeed="max" from="227820341" to="-227821109#2"/>
    <trip id="veh113" type="veh_passenger" depart="226.00" departLane="best" departSpeed="max" from="227821128#1" to="227821089#2"/>
    <trip id="veh114" type="veh_passenger" depart="228.00" departLane="best" departSpeed="max" from="-227821055#2" to="-227821122#2"/>
    <trip id="veh115" type="veh_passenger" depart="230.00" departLane="best" departSpeed="max" from="-227820329" to="227820362#1"/>
    <trip id="veh116" type="veh_passenger" depart="232.00" departLane="best" departSpeed="max" from="227820326" to="-227821053#0"/>
    <trip id="veh117" type="veh_passenger" depart="234.00" departLane="best" departSpeed="max" from="227820334#1" to="227820413#3"/>
    <trip id="veh118" type="veh_passenger" depart="236.00" departLane="best" departSpeed="max" from="227821114#0" to="227821060#0"/>
    <trip id="veh119" type="veh_passenger" depart="238.00" departLane="best" departSpeed="max" from="783987830#0" to="227820328#2"/>
    <trip id="veh120" type="veh_passenger" depart="240.00" departLane="best" departSpeed="max" from="678564655#0" to="227821084#1"/>
    <trip id="veh121" type="veh_passenger" depart="242.00" departLane="best" departSpeed="max" from="-227821049" to="227821132#7"/>
    <trip id="veh122" type="veh_passenger" depart="244.00" departLane="best" departSpeed="max" from="-227820415#0" to="-678567410"/>
    <trip id="veh123" type="veh_passenger" depart="246.00" departLane="best" departSpeed="max" from="-227820382#2" to="-227821114#0"/>
    <trip id="veh125" type="veh_passenger" depart="250.00" departLane="best" departSpeed="max" from="-227820417#2" to="-227820389#2"/>
    <trip id="veh126" type="veh_passenger" depart="252.00" departLane="best" departSpeed="max" from="-227820402#2" to="1306987098#3"/>
    <trip id="veh130" type="veh_passenger" depart="260.00" departLane="best" departSpeed="max" from="-227821066#2" to="-221417239#2"/>
    <trip id="veh131" type="veh_passenger" depart="262.00" departLane="best" departSpeed="max" from="227820417#3" to="-227821106#0"/>
    <trip id="veh133" type="veh_passenger" depart="266.00" departLane="best" departSpeed="max" from="227820404#2" to="227821060#3"/>
    <trip id="veh134" type="veh_passenger" depart="268.00" departLane="best" departSpeed="max" from="-227820326" to="-227821122#4"/>
    <trip id="veh135" type="veh_passenger" depart="270.00" departLane="best" departSpeed="max" from="990288005#0-AddedOffRampEdge" to="-227820362#1"/>
    <trip id="veh136" type="veh_passenger" depart="272.00" departLane="best" departSpeed="max" from="1247623521" to="-227821105#0"/>
    <trip id="veh137" type="veh_passenger" depart="274.00" departLane="best" departSpeed="max" from="227820334#9" to="-227820406#2"/>
    <trip id="veh138" type="veh_passenger" depart="276.00" departLane="best" departSpeed="max" from="-227820366#0" to="-227822058#3"/>
    <trip id="veh139" type="veh_passenger" depart="278.00" departLane="best" departSpeed="max" from="-227820409#4" to="-678564655#0"/>
    <trip id="veh141" type="veh_passenger" depart="282.00" departLane="best" departSpeed="max" from="-227820417#0" to="678564654#2"/>
    <trip id="veh142" type="veh_passenger" depart="284.00" departLane="best" departSpeed="max" from="227820417#9" to="-227821122#0"/>
    <trip id="veh143" type="veh_passenger" depart="286.00" departLane="best" departSpeed="max" from="-1038166874" to="-227820406#6"/>
    <trip id="veh144" type="veh_passenger" depart="288.00" departLane="best" departSpeed="max" from="-227820336" to="227821090#0"/>
    <trip id="veh145" type="veh_passenger" depart="290.00" departLane="best" departSpeed="max" from="227821125#7" to="227821053#0"/>
    <trip id="veh148" type="veh_passenger" depart="296.00" departLane="best" departSpeed="max" from="-227820419#3" to="-227820329"/>
    <trip id="veh150" type="veh_passenger" depart="300.00" departLane="best" departSpeed="max" from="744461304" to="-227821091#0"/>
    <trip id="veh152" type="veh_passenger" depart="304.00" departLane="best" departSpeed="max" from="-1074132512" to="227822058#2"/>
    <trip id="veh153" type="veh_passenger" depart="306.00" departLane="best" departSpeed="max" from="227820334#8" to="-227821102#0"/>
    <trip id="veh154" type="veh_passenger" depart="308.00" departLane="best" departSpeed="max" from="227820326" to="-227821081#6"/>
    <trip id="veh155" type="veh_passenger" depart="310.00" departLane="best" departSpeed="max" from="-227820410#1" to="227821080#0"/>
    <trip id="veh156" type="veh_passenger" depart="312.00" departLane="best" departSpeed="max" from="-227820325#1" to="-227821113#3"/>
    <trip id="veh157" type="veh_passenger" depart="314.00" departLane="best" departSpeed="max" from="592378793#3" to="-227821129#2"/>
    <trip id="veh158" type="veh_passenger" depart="316.00" departLane="best" departSpeed="max" from="-227821083#1" to="569578577#2"/>
    <trip id="veh159" type="veh_passenger" depart="318.00" departLane="best" departSpeed="max" from="644502351#0" to="678571406#0"/>
    <trip id="veh160" type="veh_passenger" depart="320.00" departLane="best" departSpeed="max" from="227820418#4" to="-227822023#1"/>
    <trip id="veh161" type="veh_passenger" depart="322.00" departLane="best" departSpeed="max" from="227821080#2" to="569578577#2"/>
    <trip id="veh162" type="veh_passenger" depart="324.00" departLane="best" departSpeed="max" from="-227820363#1" to="-227820380#0"/>
    <trip id="veh163" type="veh_passenger" depart="326.00" departLane="best" departSpeed="max" from="227821074#0" to="227821053#1"/>
    <trip id="veh164" type="veh_passenger" depart="328.00" departLane="best" departSpeed="max" from="-227820372#1" to="227820406#6"/>
    <trip id="veh165" type="veh_passenger" depart="330.00" departLane="best" departSpeed="max" from="227820371#1" to="227821105#1"/>
    <trip id="veh166" type="veh_passenger" depart="332.00" departLane="best" departSpeed="max" from="-1306995755" to="-227820337"/>
    <trip id="veh167" type="veh_passenger" depart="334.00" departLane="best" departSpeed="max" from="227820334#5" to="-783987829#0"/>
    <trip id="veh168" type="veh_passenger" depart="336.00" departLane="best" departSpeed="max" from="783987830#0" to="227821124#0"/>
    <trip id="veh169" type="veh_passenger" depart="338.00" departLane="best" departSpeed="max" from="227821086#1" to="-227821121#3"/>
    <trip id="veh170" type="veh_passenger" depart="340.00" departLane="best" departSpeed="max" from="227821060#2" to="-227820406#2"/>
    <trip id="veh171" type="veh_passenger" depart="342.00" departLane="best" departSpeed="max" from="227820325#5" to="-227822058#3"/>
    <trip id="veh172" type="veh_passenger" depart="344.00" departLane="best" departSpeed="max" from="40925149#1" to="-227820399#3"/>
    <trip id="veh174" type="veh_passenger" depart="348.00" departLane="best" departSpeed="max" from="-227821130#0" to="592378793#3"/>
    <trip id="veh175" type="veh_passenger" depart="350.00" departLane="best" departSpeed="max" from="227821112#0" to="227821066#0"/>
    <trip id="veh176" type="veh_passenger" depart="352.00" departLane="best" departSpeed="max" from="227820366#1" to="227822058#0"/>
    <trip id="veh177" type="veh_passenger" depart="354.00" departLane="best" departSpeed="max" from="990288005#0-AddedOffRampEdge" to="227821065#1"/>
    <trip id="veh178" type="veh_passenger" depart="356.00" departLane="best" departSpeed="max" from="783987828" to="227820419#7"/>
    <trip id="veh179" type="veh_passenger" depart="358.00" departLane="best" departSpeed="max" from="227821130#5" to="227821124#4"/>
    <trip id="veh180" type="veh_passenger" depart="360.00" departLane="best" departSpeed="max" from="227820411#4" to="227820380#0"/>
    <trip id="veh181" type="veh_passenger" depart="362.00" departLane="best" departSpeed="max" from="-227821125#3" to="227820411#3"/>
    <trip id="veh182" type="veh_passenger" depart="364.00" departLane="best" departSpeed="max" from="227820404#2" to="227820419#2"/>
    <trip id="veh184" type="veh_passenger" depart="368.00" departLane="best" departSpeed="max" from="-227820347" to="-227820325#5"/>
    <trip id="veh185" type="veh_passenger" depart="370.00" departLane="best" departSpeed="max" from="227820387#0" to="227820325#7"/>
    <trip id="veh187" type="veh_passenger" depart="374.00" departLane="best" departSpeed="max" from="227821063" to="227820408#0"/>
    <trip id="veh188" type="veh_passenger" depart="376.00" departLane="best" departSpeed="max" from="161198902#2" to="1449949879"/>
    <trip id="veh189" type="veh_passenger" depart="378.00" departLane="best" departSpeed="max" from="227820417#10" to="-227820349"/>
    <trip id="veh190" type="veh_passenger" depart="380.00" departLane="best" departSpeed="max" from="-227821132#10" to="227821099#1"/>
    <trip id="veh191" type="veh_passenger" depart="382.00" departLane="best" departSpeed="max" from="40925149#5" to="783987830#3"/>
    <trip id="veh192" type="veh_passenger" depart="384.00" departLane="best" departSpeed="max" from="227821126#2" to="-227820410#3"/>
    <trip id="veh193" type="veh_passenger" depart="386.00" departLane="best" departSpeed="max" from="227820408#3" to="569809640"/>
    <trip id="veh194" type="veh_passenger" depart="388.00" departLane="best" departSpeed="max" from="227821130#4" to="227820405#1"/>
    <trip id="veh196" type="veh_passenger" depart="392.00" departLane="best" departSpeed="max" from="-227820342" to="744461305"/>
    <trip id="veh198" type="veh_passenger" depart="396.00" departLane="best" departSpeed="max" from="592378793#2" to="-227820385#1"/>
    <trip id="veh199" type="veh_passenger" depart="398.00" departLane="best" departSpeed="max" from="227820418#8" to="227820361#2"/>
    <trip id="veh200" type="veh_passenger" depart="400.00" departLane="best" departSpeed="max" from="227820411#3" to="227821060#2"/>
    <trip id="veh202" type="veh_passenger" depart="404.00" departLane="best" departSpeed="max" from="-227821078" to="-227821074#1"/>
    <trip id="veh203" type="veh_passenger" depart="406.00" departLane="best" departSpeed="max" from="158922816#0" to="-227821074#0"/>
    <trip id="veh206" type="veh_passenger" depart="412.00" departLane="best" departSpeed="max" from="227821109#2" to="227820413#3"/>
    <trip id="veh207" type="veh_passenger" depart="414.00" departLane="best" departSpeed="max" from="-783987829#0" to="783932774#0"/>
    <trip id="veh208" type="veh_passenger" depart="416.00" departLane="best" departSpeed="max" from="334227209#2" to="-227821075#0"/>
    <trip id="veh209" type="veh_passenger" depart="418.00" departLane="best" departSpeed="max" from="-227820419#0" to="158922824#3"/>
    <trip id="veh210" type="veh_passenger" depart="420.00" departLane="best" departSpeed="max" from="-227821109#0" to="-227821104#0"/>
    <trip id="veh211" type="veh_passenger" depart="422.00" departLane="best" departSpeed="max" from="227820382#3" to="227821125#2"/>
    <trip id="veh213" type="veh_passenger" depart="426.00" departLane="best" departSpeed="max" from="227820413#4" to="-227821113#2"/>
    <trip id="veh214" type="veh_passenger" depart="428.00" departLane="best" departSpeed="max" from="-227820402#5" to="-227821079#0"/>
    <trip id="veh215" type="veh_passenger" depart="430.00" departLane="best" departSpeed="max" from="-678571407" to="-227820349"/>
    <trip id="veh216" type="veh_passenger" depart="432.00" departLane="best" departSpeed="max" from="227821122#8" to="-227821133#0"/>
    <trip id="veh217" type="veh_passenger" depart="434.00" departLane="best" departSpeed="max" from="227820417#5" to="227820415#1"/>
    <trip id="veh218" type="veh_passenger" depart="436.00" departLane="best" departSpeed="max" from="-227821121#0" to="227821075#1"/>
    <trip id="veh219" type="veh_passenger" depart="438.00" departLane="best" departSpeed="max" from="-227820392#2" to="-227820365#0"/>
    <trip id="veh220" type="veh_passenger" depart="440.00" departLane="best" departSpeed="max" from="-227821060#2" to="227821132#6"/>
    <trip id="veh223" type="veh_passenger" depart="446.00" departLane="best" departSpeed="max" from="-227820371#0" to="-227821058"/>
    <trip id="veh225" type="veh_passenger" depart="450.00" departLane="best" departSpeed="max" from="227820325#1" to="-221417260#2"/>
    <trip id="veh226" type="veh_passenger" depart="452.00" departLane="best" departSpeed="max" from="-227821047" to="-227820410#2"/>
    <trip id="veh227" type="veh_passenger" depart="454.00" departLane="best" departSpeed="max" from="-227820352#0" to="227820404#1"/>
    <trip id="veh229" type="veh_passenger" depart="458.00" departLane="best" departSpeed="max" from="227821066#0" to="227821133#3"/>
    <trip id="veh230" type="veh_passenger" depart="460.00" departLane="best" departSpeed="max" from="227821079#0" to="221417210#0"/>
    <trip id="veh231" type="veh_passenger" depart="462.00" departLane="best" departSpeed="max" from="-227821066#2" to="-227820339"/>
    <trip id="veh232" type="veh_passenger" depart="464.00" departLane="best" departSpeed="max" from="227821122#8" to="-227821122#4"/>
    <trip id="veh233" type="veh_passenger" depart="466.00" departLane="best" departSpeed="max" from="227820382#0" to="227820395#2"/>
    <trip id="veh236" type="veh_passenger" depart="472.00" departLane="best" departSpeed="max" from="227821047" to="-227821081#3"/>
    <trip id="veh237" type="veh_passenger" depart="474.00" departLane="best" departSpeed="max" from="-227821053#0" to="569578577#3"/>
    <trip id="veh238" type="veh_passenger" depart="476.00" departLane="best" departSpeed="max" from="-783987829#0" to="227820371#1"/>
    <trip id="veh239" type="veh_passenger" depart="478.00" departLane="best" departSpeed="max" from="-783987831" to="227820325#0"/>
    <trip id="veh240" type="veh_passenger" depart="480.00" departLane="best" departSpeed="max" from="227820363#2" to="-227821099#2"/>
    <trip id="veh241" type="veh_passenger" depart="482.00" departLane="best" departSpeed="max" from="783987830#2" to="227820413#5"/>
    <trip id="veh243" type="veh_passenger" depart="486.00" departLane="best" departSpeed="max" from="-227821074#3" to="-227820328#1"/>
    <trip id="veh244" type="veh_passenger" depart="488.00" departLane="best" departSpeed="max" from="227821123#0" to="-227822066#1"/>
    <trip id="veh245" type="veh_passenger" depart="490.00" departLane="best" departSpeed="max" from="-678564654#2" to="-227820363#2"/>
    <trip id="veh246" type="veh_passenger" depart="492.00" departLane="best" departSpeed="max" from="227820325#2" to="227821079#1"/>
    <trip id="veh247" type="veh_passenger" depart="494.00" departLane="best" departSpeed="max" from="990288005#0-AddedOffRampEdge" to="227821113#2"/>
    <trip id="veh248" type="veh_passenger" depart="496.00" departLane="best" departSpeed="max" from="-227821060#2" to="-227820415#4"/>
    <trip id="veh249" type="veh_passenger" depart="498.00" departLane="best" departSpeed="max" from="227821129#3" to="227820336"/>
    <trip id="veh250" type="veh_passenger" depart="500.00" departLane="best" departSpeed="max" from="-227821063" to="783987827"/>
    <trip id="veh251" type="veh_passenger" depart="502.00" departLane="best" departSpeed="max" from="227820406#4" to="227820375#1"/>
    <trip id="veh252" type="veh_passenger" depart="504.00" departLane="best" departSpeed="max" from="-227820357#0" to="-227820375#1"/>
    <trip id="veh253" type="veh_passenger" depart="506.00" departLane="best" departSpeed="max" from="227820387#0" to="-227820406#0"/>
    <trip id="veh255" type="veh_passenger" depart="510.00" departLane="best" departSpeed="max" from="-227821104#0" to="-227821113#2"/>
    <trip id="veh256" type="veh_passenger" depart="512.00" departLane="best" departSpeed="max" from="227820364#1" to="227821055#0"/>
    <trip id="veh257" type="veh_passenger" depart="514.00" departLane="best" departSpeed="max" from="-227820366#0" to="-227820382#2"/>
    <trip id="veh258" type="veh_passenger" depart="516.00" departLane="best" departSpeed="max" from="-227821084#0" to="-227821123#5"/>
    <trip id="veh259" type="veh_passenger" depart="518.00" departLane="best" departSpeed="max" from="-227821113#0" to="-221417253#3"/>
    <trip id="veh262" type="veh_passenger" depart="524.00" departLane="best" departSpeed="max" from="-227821090#0" to="227821099#1"/>
    <trip id="veh263" type="veh_passenger" depart="526.00" departLane="best" departSpeed="max" from="227820417#9" to="227821113#1"/>
    <trip id="veh264" type="veh_passenger" depart="528.00" departLane="best" departSpeed="max" from="227821074#1" to="227820366#0"/>
    <trip id="veh265" type="veh_passenger" depart="530.00" departLane="best" departSpeed="max" from="227821081#1" to="227821130#4"/>
    <trip id="veh266" type="veh_passenger" depart="532.00" departLane="best" departSpeed="max" from="227821126#4" to="227821121#3"/>
    <trip id="veh267" type="veh_passenger" depart="534.00" departLane="best" departSpeed="max" from="-227821084#0" to="783932774#2"/>
    <trip id="veh268" type="veh_passenger" depart="536.00" departLane="best" departSpeed="max" from="227821113#4" to="-227821099#0"/>
    <trip id="veh269" type="veh_passenger" depart="538.00" departLane="best" departSpeed="max" from="227820389#0" to="-227821099#0"/>
    <trip id="veh270" type="veh_passenger" depart="540.00" departLane="best" departSpeed="max" from="-678567410" to="-227821084#1"/>
    <trip id="veh273" type="veh_passenger" depart="546.00" departLane="best" departSpeed="max" from="-227820410#2" to="227820409#0"/>