<?xml version="1.0" encoding="UTF-8"?>

<!-- generated on 2025-12-10 11:30:09 by Eclipse SUMO netconvert Version 1.12.0
<configuration xmlns:xsi="http://www.w3.org/2001/XMLSchema-instance" xsi:noNamespaceSchemaLocation="http://sumo.dlr.de/xsd/netconvertConfiguration.xsd">

    <input>
        <osm-files value="osm/riyadh_region.osm"/>
    </input>

    <output>
        <output-file value="riyadh.net.xml"/>
    </output>

    <projection>
        <proj.utm value="true"/>
    </projection>

    <tls_building>
        <tls.guess-signals value="true"/>
    </tls_building>

    <ramp_guessing>
        <ramps.guess value="true"/>
    </ramp_guessing>

    <edge_removal>
        <remove-edges.isolated value="true"/>
    </edge_removal>

    <junctions>
        <junctions.join value="true"/>
    </junctions>

    <report>
        <aggregate-warnings value="5"/>
    </report>

</configuration>
-->

<net version="1.9" junctionCornerDetail="5" limitTurnSpeed="5.50" xmlns:xsi="http://www.w3.org/2001/XMLSchema-instance" xsi:noNamespaceSchemaLocation="http://sumo.dlr.de/xsd/net_file.xsd">

    <location netOffset="-667538.64,-2740902.52" convBoundary="0.00,0.00,3856.83,3101.38" origBoundary="46.657259,24.773463,46.695624,24.801271" projParameter="+proj=utm +zone=38 +ellps=WGS84 +datum=WGS84 +units=m +no_defs"/>

    <type id="highway.bridleway" priority="1" numLanes="1" speed="2.78" allow="pedestrian" oneway="1" width="2.00"/>
    <type id="highway.bus_guideway" priority="1" numLanes="1" speed="27.78" allow="bus" oneway="1"/>
    <type id="highway.cycleway" priority="1" numLanes="1" speed="8.33" allow="bicycle" oneway="0" width="1.00"/>
    <type id="highway.footway" priority="1" numLanes="1" speed="2.78" allow="pedestrian" oneway="1" width="2.00"/>
    <type id="highway.ford" priority="1" numLanes="1" speed="2.78" allow="army" oneway="0"/>
    <type id="highway.living_street" priority="2" numLanes="1" speed="2.78" disallow="tram rail_urban rail rail_electric rail_fast ship" oneway="0"/>
    <type id="highway.motorway" priority="14" numLanes="2" speed="39.44" allow="private emergency authority army vip passenger hov taxi bus coach delivery truck trailer motorcycle evehicle custom1 custom2" oneway="1"/>
    <type id="highway.motorway_link" priority="9" numLanes="1" speed="22.22" allow="private emergency authority army vip passenger hov taxi bus coach delivery truck trailer motorcycle evehicle custom1 custom2" oneway="1"/>
    <type id="highway.path" priority="1" numLanes="1" speed="2.78" allow="pedestrian bicycle" oneway="0" width="2.00"/>
    <type id="highway.pedestrian" priority="1" numLanes="1" speed="2.78" allow="pedestrian" oneway="1" width="2.00"/>
    <type id="highway.primary" priority="12" numLanes="2" speed="27.78" disallow="tram rail_urban rail rail_electric rail_fast ship" oneway="0"/>
    <type id="highway.primary_link" priority="7" numLanes="1" speed="22.22" disallow="tram rail_urban rail rail_electric rail_fast ship" oneway="0"/>
    <type id="highway.raceway" priority="15" numLanes="2" speed="83.33" allow="vip" oneway="0"/>
    <type id="highway.residential" priority="3" numLanes="1" speed="13.89" disallow="tram rail_urban rail rail_electric rail_fast ship" oneway="0"/>
    <type id="highway.secondary" priority="11" numLanes="1" speed="27.78" disallow="tram rail_urban rail rail_electric rail_fast ship" oneway="0"/>
    <type id="highway.secondary_link" priority="6" numLanes="1" speed="22.22" disallow="tram rail_urban rail rail_electric rail_fast ship" oneway="0"/>
    <type id="highway.service" priority="1" numLanes="1" speed="5.56" allow="pedestrian delivery bicycle" oneway="0"/>
    <type id="highway.stairs" priority="1" numLanes="1" speed="1.39" allow="pedestrian" oneway="1" width="2.00"/>
    <type id="highway.step" priority="1" numLanes="1" speed="1.39" allow="pedestrian" oneway="1" width="2.00"/>
    <type id="highway.steps" priority="1" numLanes="1" speed="1.39" allow="pedestrian" oneway="1" width="2.00"/>
    <type id="highway.tertiary" priority="10" numLanes="1" speed="22.22" disallow="tram rail_urban rail rail_electric rail_fast ship" oneway="0"/>
    <type id="highway.tertiary_link" priority="5" numLanes="1" speed="22.22" disallow="tram rail_urban rail rail_electric rail_fast ship" oneway="0"/>
    <type id="highway.track" priority="1" numLanes="1" speed="5.56" allow="pedestrian motorcycle moped bicycle" oneway="0"/>
    <type id="highway.trunk" priority="13" numLanes="2" speed="27.78" disallow="pedestrian bicycle tram rail_urban rail rail_electric rail_fast ship" oneway="0"/>
    <type id="highway.trunk_link" priority="8" numLanes="1" speed="22.22" disallow="pedestrian bicycle tram rail_urban rail rail_electric rail_fast ship" oneway="0"/>
    <type id="highway.unclassified" priority="4" numLanes="1" speed="13.89" disallow="tram rail_urban rail rail_electric rail_fast ship" oneway="0"/>
    <type id="highway.unsurfaced" priority="1" numLanes="1" speed="8.33" disallow="tram rail_urban rail rail_electric rail_fast ship" oneway="0"/>
    <type id="railway.highspeed" priority="21" numLanes="1" speed="69.44" allow="rail_fast" oneway="1"/>
    <type id="railway.light_rail" priority="19" numLanes="1" speed="27.78" allow="rail_urban" oneway="1"/>
    <type id="railway.preserved" priority="16" numLanes="1" speed="27.78" allow="rail" oneway="1"/>
    <type id="railway.rail" priority="20" numLanes="1" speed="44.44" allow="rail" oneway="1"/>
    <type id="railway.subway" priority="18" numLanes="1" speed="27.78" allow="rail_urban" oneway="1"/>
    <type id="railway.tram" priority="17" numLanes="1" speed="13.89" allow="tram" oneway="1"/>

    <edge id=":10232388630_0" function="internal">
        <lane id=":10232388630_0_0" index="0" disallow="tram rail_urban rail rail_electric rail_fast ship" speed="13.89" length="9.36" shape="1872.06,1610.65 1863.58,1606.70"/>
    </edge>
    <edge id=":10232388630_1" function="internal">
        <lane id=":10232388630_1_0" index="0" allow="pedestrian delivery bicycle" speed="6.85" length="3.25" shape="1872.06,1610.65 1869.71,1609.10 1869.47,1608.73"/>
    </edge>
    <edge id=":10232388630_7" function="internal">
        <lane id=":10232388630_7_0" index="0" allow="pedestrian delivery bicycle" speed="6.85" length="7.00" shape="1869.47,1608.73 1868.44,1607.17 1868.24,1604.87 1869.12,1602.20"/>
    </edge>
    <edge id=":10232388630_2" function="internal">
        <lane id=":10232388630_2_0" index="0" allow="pedestrian delivery bicycle" speed="5.02" length="5.02" shape="1871.99,1603.61 1871.56,1604.92 1871.65,1606.05 1872.28,1606.99 1873.43,1607.75"/>
    </edge>
    <edge id=":10232388630_3" function="internal">
        <lane id=":10232388630_3_0" index="0" allow="pedestrian delivery bicycle" speed="6.92" length="10.14" shape="1871.99,1603.61 1870.41,1605.93 1868.49,1607.21 1866.21,1607.47 1863.58,1606.70"/>
    </edge>
    <edge id=":10232388630_4" function="internal">
        <lane id=":10232388630_4_0" index="0" allow="pedestrian delivery bicycle" speed="3.65" length="4.67" shape="1871.99,1603.61 1870.74,1604.33 1869.84,1604.34 1869.30,1603.63 1869.12,1602.20"/>
    </edge>
    <edge id=":10232388630_5" function="internal">
        <lane id=":10232388630_5_0" index="0" allow="pedestrian delivery bicycle" speed="5.12" length="5.09" shape="1864.92,1603.79 1866.23,1604.17 1867.36,1604.03 1868.32,1603.37 1869.12,1602.20"/>
    </edge>
    <edge id=":10232388630_6" function="internal">
        <lane id=":10232388630_6_0" index="0" disallow="tram rail_urban rail rail_electric rail_fast ship" speed="13.89" length="9.39" shape="1864.92,1603.79 1873.43,1607.75"/>
    </edge>
    <edge id=":10232388632_0" function="internal">
        <lane id=":10232388632_0_0" index="0" allow="pedestrian delivery bicycle" speed="5.08" length="5.00" shape="1902.71,1547.43 1901.40,1547.05 1900.28,1547.18 1899.33,1547.82 1898.57,1548.96"/>
    </edge>
    <edge id=":10232388632_1" function="internal">
        <lane id=":10232388632_1_0" index="0" disallow="tram rail_urban rail rail_electric rail_fast ship" speed="13.89" length="9.35" shape="1902.71,1547.43 1894.25,1543.44"/>
    </edge>
    <edge id=":10232388632_2" function="internal">
        <lane id=":10232388632_2_0" index="0" disallow="tram rail_urban rail rail_electric rail_fast ship" speed="13.89" length="9.25" shape="1895.67,1540.57 1904.03,1544.52"/>
    </edge>
    <edge id=":10232388632_3" function="internal">
        <lane id=":10232388632_3_0" index="0" allow="pedestrian delivery bicycle" speed="6.87" length="3.17" shape="1895.67,1540.57 1897.95,1542.13 1898.17,1542.46"/>
    </edge>
    <edge id=":10232388632_7" function="internal">
        <lane id=":10232388632_7_0" index="0" allow="pedestrian delivery bicycle" speed="6.87" length="6.95" shape="1898.17,1542.46 1899.20,1544.05 1899.41,1546.33 1898.57,1548.96"/>
    </edge>
    <edge id=":10232388632_4" function="internal">
        <lane id=":10232388632_4_0" index="0" allow="pedestrian delivery bicycle" speed="5.05" length="4.99" shape="1895.69,1547.58 1896.10,1546.28 1896.00,1545.15 1895.38,1544.21 1894.25,1543.44"/>
    </edge>
    <edge id=":10232388632_5" function="internal">
        <lane id=":10232388632_5_0" index="0" allow="pedestrian delivery bicycle" speed="6.89" length="10.08" shape="1895.69,1547.58 1897.22,1545.28 1899.12,1544.00 1901.39,1543.75 1904.03,1544.52"/>
    </edge>
    <edge id=":10232388632_6" function="internal">
        <lane id=":10232388632_6_0" index="0" allow="pedestrian delivery bicycle" speed="3.65" length="4.67" shape="1895.69,1547.58 1896.93,1546.84 1897.82,1546.83 1898.37,1547.54 1898.57,1548.96"/>
    </edge>
    <edge id=":10232506842_0" function="internal">
        <lane id=":10232506842_0_0" index="0" allow="pedestrian delivery bicycle" speed="5.56" length="7.58" shape="439.79,872.70 439.02,871.57 437.29,870.02 435.41,868.55 434.21,867.64"/>
    </edge>
    <edge id=":10232506842_1" function="internal">
        <lane id=":10232506842_1_0" index="0" allow="pedestrian delivery bicycle" speed="5.56" length="9.18" shape="439.79,872.70 439.47,869.97 439.09,868.05 439.10,866.21 439.96,863.72"/>
    </edge>
    <edge id=":10232506842_2" function="internal">
        <lane id=":10232506842_2_0" index="0" allow="pedestrian delivery bicycle" speed="4.07" length="4.99" shape="439.79,872.70 439.75,871.16 440.20,870.31 441.14,870.16 442.58,870.71"/>
    </edge>
    <edge id=":10232506842_3" function="internal">
        <lane id=":10232506842_3_0" index="0" allow="pedestrian delivery bicycle" speed="5.56" length="5.91" shape="442.85,865.09 442.17,866.83 441.90,868.36 442.04,869.65 442.58,870.71"/>
    </edge>
    <edge id=":10232506842_4" function="internal">
        <lane id=":10232506842_4_0" index="0" allow="pedestrian delivery bicycle" speed="5.56" length="10.85" shape="442.85,865.09 441.12,867.77 439.10,869.09 436.80,869.05 434.21,867.64"/>
    </edge>
    <edge id=":10232506842_5" function="internal">
        <lane id=":10232506842_5_0" index="0" allow="pedestrian delivery bicycle" speed="3.65" length="4.67" shape="442.85,865.09 441.61,865.83 440.72,865.85 440.17,865.15 439.96,863.72"/>
    </edge>
    <edge id=":10232506842_6" function="internal">
        <lane id=":10232506842_6_0" index="0" allow="pedestrian delivery bicycle" speed="4.79" length="5.13" shape="435.86,864.87 437.09,865.55 438.19,865.58 439.14,864.97 439.96,863.72"/>
    </edge>
    <edge id=":10232506842_7" function="internal">
        <lane id=":10232506842_7_0" index="0" allow="pedestrian delivery bicycle" speed="5.56" length="8.96" shape="435.86,864.87 438.01,866.43 439.52,867.49 440.87,868.70 442.58,870.71"/>
    </edge>
    <edge id=":10232506842_8" function="internal">
        <lane id=":10232506842_8_0" index="0" allow="pedestrian delivery bicycle" speed="3.66" length="4.71" shape="435.86,864.87 436.48,866.18 436.42,867.08 435.66,867.57 434.21,867.64"/>
    </edge>
    <edge id=":11542387546_0" function="internal">
        <lane id=":11542387546_0_0" index="0" disallow="tram rail_urban rail rail_electric rail_fast ship" speed="27.78" length="0.48" shape="377.90,1343.67 377.98,1343.77"/>
        <lane id=":11542387546_0_1" index="1" disallow="tram rail_urban rail rail_electric rail_fast ship" speed="27.78" length="0.48" shape="375.34,1345.60 375.57,1345.88"/>
        <lane id=":11542387546_0_2" index="2" disallow="tram rail_urban rail rail_electric rail_fast ship" speed="27.78" length="0.48" shape="372.79,1347.52 373.17,1347.99"/>
        <lane id=":11542387546_0_3" index="3" disallow="tram rail_urban rail rail_electric rail_fast ship" speed="27.78" length="0.48" shape="370.23,1349.45 370.76,1350.10"/>
    </edge>
    <edge id=":12093546929_0" function="internal">
        <lane id=":12093546929_0_0" index="0" disallow="tram rail_urban rail rail_electric rail_fast ship" speed="3.65" length="4.67" shape="366.11,1312.56 365.57,1311.22 365.69,1310.34 366.48,1309.90 367.92,1309.92"/>
    </edge>
    <edge id=":12093546933_0" function="internal">
        <lane id=":12093546933_0_0" index="0" allow="pedestrian delivery bicycle" speed="3.90" length="2.62" shape="529.33,986.93 528.65,986.71 528.07,986.76 527.57,987.08 527.18,987.68"/>
    </edge>
    <edge id=":12093546933_1" function="internal">
        <lane id=":12093546933_1_0" index="0" disallow="tram rail_urban rail rail_electric rail_fast ship" speed="3.65" length="4.67" shape="529.33,986.93 528.62,985.68 528.61,984.79 529.33,984.25 530.76,984.07"/>
    </edge>
    <edge id=":12093546933_2" function="internal">
        <lane id=":12093546933_2_0" index="0" allow="pedestrian delivery bicycle" speed="6.07" length="7.85" shape="524.28,986.31 525.47,984.52 526.95,983.54 528.71,983.39 530.76,984.07"/>
    </edge>
    <edge id=":12093546934_0" function="internal">
        <lane id=":12093546934_0_0" index="0" allow="pedestrian delivery bicycle" speed="5.00" length="5.05" shape="523.48,1002.99 522.16,1002.55 521.03,1002.65 520.09,1003.29 519.35,1004.46"/>
    </edge>
    <edge id=":12093546934_1" function="internal">
        <lane id=":12093546934_1_0" index="0" allow="pedestrian delivery bicycle" speed="5.56" length="10.22" shape="523.48,1002.99 521.14,1001.39 519.85,999.44 519.60,997.15 520.40,994.52"/>
    </edge>
    <edge id=":12093546934_2" function="internal">
        <lane id=":12093546934_2_0" index="0" allow="pedestrian delivery bicycle" speed="3.65" length="4.67" shape="523.48,1002.99 522.77,1001.74 522.77,1000.84 523.48,1000.31 524.91,1000.13"/>
    </edge>
    <edge id=":12093546934_3" function="internal">
        <lane id=":12093546934_3_0" index="0" allow="pedestrian delivery bicycle" speed="5.14" length="5.15" shape="523.29,995.89 522.90,997.20 523.04,998.34 523.71,999.31 524.91,1000.13"/>
    </edge>
    <edge id=":12093546934_4" function="internal">
        <lane id=":12093546934_4_0" index="0" allow="pedestrian delivery bicycle" speed="5.56" length="9.44" shape="523.29,995.89 519.35,1004.46"/>
    </edge>
    <edge id=":12093546934_5" function="internal">
        <lane id=":12093546934_5_0" index="0" allow="pedestrian delivery bicycle" speed="3.65" length="4.67" shape="523.29,995.89 522.06,996.64 521.16,996.66 520.61,995.95 520.40,994.52"/>
    </edge>
    <edge id=":12093546934_6" function="internal">
        <lane id=":12093546934_6_0" index="0" allow="pedestrian delivery bicycle" speed="5.56" length="9.50" shape="516.43,1003.15 520.40,994.52"/>
    </edge>
    <edge id=":12093546934_7" function="internal">
        <lane id=":12093546934_7_0" index="0" allow="pedestrian delivery bicycle" speed="5.56" length="10.37" shape="516.43,1003.15 517.96,1000.74 519.88,999.43 522.20,999.23 524.91,1000.13"/>
    </edge>
    <edge id=":12093546934_8" function="internal">
        <lane id=":12093546934_8_0" index="0" allow="pedestrian delivery bicycle" speed="3.65" length="4.67" shape="516.43,1003.15 517.65,1002.39 518.54,1002.35 519.11,1003.04 519.35,1004.46"/>
    </edge>
    <edge id=":12093546937_0" function="internal">
        <lane id=":12093546937_0_0" index="0" allow="pedestrian delivery bicycle" speed="5.06" length="5.03" shape="664.09,687.12 662.76,686.73 661.62,686.85 660.68,687.48 659.94,688.63"/>
    </edge>
    <edge id=":12093546937_1" function="internal">
        <lane id=":12093546937_1_0" index="0" allow="pedestrian delivery bicycle" speed="3.65" length="4.67" shape="664.09,687.12 663.33,685.90 663.29,685.00 663.99,684.44 665.41,684.20"/>
    </edge>
    <edge id=":12093546937_2" function="internal">
        <lane id=":12093546937_2_0" index="0" allow="pedestrian delivery bicycle" speed="5.03" length="5.02" shape="663.89,680.09 663.49,681.41 663.61,682.53 664.25,683.46 665.41,684.20"/>
    </edge>
    <edge id=":12093546937_3" function="internal">
        <lane id=":12093546937_3_0" index="0" disallow="tram rail_urban rail rail_electric rail_fast ship" speed="22.22" length="9.41" shape="663.89,680.09 659.94,688.63"/>
    </edge>
    <edge id=":12093546938_0" function="internal">
        <lane id=":12093546938_0_0" index="0" disallow="tram rail_urban rail rail_electric rail_fast ship" speed="6.53" length="9.07" shape="673.13,673.67 670.74,672.94 668.70,673.15 667.00,674.29 665.64,676.36"/>
    </edge>
    <edge id=":12093546938_1" function="internal">
        <lane id=":12093546938_1_0" index="0" disallow="tram rail_urban rail rail_electric rail_fast ship" speed="3.65" length="4.67" shape="673.13,673.67 672.38,672.44 672.35,671.54 673.05,670.98 674.48,670.76"/>
    </edge>
    <edge id=":12093546938_2" function="internal">
        <lane id=":12093546938_2_0" index="0" disallow="tram rail_urban rail rail_electric rail_fast ship" speed="6.48" length="9.03" shape="671.81,663.33 671.07,665.69 671.26,667.72 672.40,669.41 674.48,670.76"/>
    </edge>
    <edge id=":12093546938_3" function="internal">
        <lane id=":12093546938_3_0" index="0" disallow="tram rail_urban rail rail_electric rail_fast ship" speed="22.22" length="14.42" shape="671.81,663.33 665.64,676.36"/>
    </edge>
    <edge id=":12094774946_0" function="internal">
        <lane id=":12094774946_0_0" index="0" allow="pedestrian delivery bicycle" speed="3.65" length="4.67" shape="463.60,945.57 462.37,946.33 461.48,946.35 460.92,945.65 460.70,944.23"/>
    </edge>
    <edge id=":12094774950_0" function="internal">
        <lane id=":12094774950_0_0" index="0" allow="pedestrian delivery bicycle" speed="6.08" length="7.71" shape="480.49,897.96 482.25,899.12 483.22,900.57 483.40,902.30 482.79,904.32"/>
    </edge>
    <edge id=":12094774950_1" function="internal">
        <lane id=":12094774950_1_0" index="0" disallow="tram rail_urban rail rail_electric rail_fast ship" speed="3.65" length="4.67" shape="480.49,897.96 481.23,899.19 481.25,900.09 480.55,900.64 479.12,900.85"/>
    </edge>
    <edge id=":12094774950_2" function="internal">
        <lane id=":12094774950_2_0" index="0" allow="pedestrian delivery bicycle" speed="3.90" length="2.57" shape="479.89,902.97 480.09,902.30 480.03,901.72 479.71,901.24 479.12,900.85"/>
    </edge>
    <edge id=":12094774963_0" function="internal">
        <lane id=":12094774963_0_0" index="0" allow="pedestrian delivery bicycle" speed="5.46" length="6.02" shape="623.74,815.86 622.42,815.48 621.18,815.74 620.03,816.66 618.97,818.24"/>
    </edge>
    <edge id=":12094774963_1" function="internal">
        <lane id=":12094774963_1_0" index="0" disallow="tram rail_urban rail rail_electric rail_fast ship" speed="13.89" length="9.77" shape="623.74,815.86 621.16,814.57 619.31,813.84 617.37,813.37 614.51,812.86"/>
    </edge>
    <edge id=":12094774963_2" function="internal">
        <lane id=":12094774963_2_0" index="0" disallow="tram rail_urban rail rail_electric rail_fast ship" speed="13.89" length="7.95" shape="617.85,810.21 620.15,810.69 621.68,811.19 623.14,811.91 625.22,813.03"/>
    </edge>
    <edge id=":12094774963_3" function="internal">
        <lane id=":12094774963_3_0" index="0" allow="pedestrian delivery bicycle" speed="6.13" length="2.30" shape="617.85,810.21 619.78,811.04 619.87,811.22"/>
    </edge>
    <edge id=":12094774963_7" function="internal">
        <lane id=":12094774963_7_0" index="0" allow="pedestrian delivery bicycle" speed="6.13" length="7.49" shape="619.87,811.22 620.60,812.66 620.33,815.06 618.97,818.24"/>
    </edge>
    <edge id=":12094774963_4" function="internal">
        <lane id=":12094774963_4_0" index="0" allow="pedestrian delivery bicycle" speed="4.71" length="5.23" shape="616.15,816.73 616.70,815.26 616.61,814.13 615.88,813.33 614.51,812.86"/>
    </edge>
    <edge id=":12094774963_5" function="internal">
        <lane id=":12094774963_5_0" index="0" allow="pedestrian delivery bicycle" speed="7.18" length="11.13" shape="616.15,816.73 618.04,814.02 620.18,812.50 622.58,812.17 625.22,813.03"/>
    </edge>
    <edge id=":12094774963_6" function="internal">
        <lane id=":12094774963_6_0" index="0" allow="pedestrian delivery bicycle" speed="3.65" length="4.67" shape="616.15,816.73 617.42,816.05 618.31,816.07 618.83,816.80 618.97,818.24"/>
    </edge>
    <edge id=":12103856393_0" function="internal">
        <lane id=":12103856393_0_0" index="0" disallow="tram rail_urban rail rail_electric rail_fast ship" speed="13.89" length="14.30" shape="2374.83,1454.08 2368.61,1466.95"/>
    </edge>
    <edge id=":12103856393_1" function="internal">
        <lane id=":12103856393_1_0" index="0" disallow="tram rail_urban rail rail_electric rail_fast ship" speed="8.06" length="3.96" shape="2374.83,1454.08 2372.65,1457.25 2372.56,1457.31"/>
    </edge>
    <edge id=":12103856393_2" function="internal">
        <lane id=":12103856393_2_0" index="0" disallow="tram rail_urban rail rail_electric rail_fast ship" speed="3.65" length="1.44" shape="2374.83,1454.08 2373.58,1454.80"/>
    </edge>
    <edge id=":12103856393_9" function="internal">
        <lane id=":12103856393_9_0" index="0" disallow="tram rail_urban rail rail_electric rail_fast ship" speed="8.06" length="10.21" shape="2372.56,1457.31 2369.95,1458.98 2366.74,1459.28 2363.03,1458.14"/>
    </edge>
    <edge id=":12103856393_10" function="internal">
        <lane id=":12103856393_10_0" index="0" disallow="tram rail_urban rail rail_electric rail_fast ship" speed="3.65" length="3.23" shape="2373.58,1454.80 2372.69,1454.80 2372.15,1454.08 2371.97,1452.65"/>
    </edge>
    <edge id=":12103856393_3" function="internal">
        <lane id=":12103856393_3_0" index="0" disallow="tram rail_urban rail rail_electric rail_fast ship" speed="6.58" length="9.10" shape="2364.38,1455.25 2366.77,1455.98 2368.83,1455.79 2370.57,1454.68 2371.97,1452.65"/>
    </edge>
    <edge id=":12103856393_4" function="internal">
        <lane id=":12103856393_4_0" index="0" disallow="tram rail_urban rail rail_electric rail_fast ship" speed="8.00" length="14.20" shape="2364.38,1455.25 2367.64,1457.38 2369.43,1460.04 2369.76,1463.23 2368.61,1466.95"/>
    </edge>
    <edge id=":12103856393_5" function="internal">
        <lane id=":12103856393_5_0" index="0" disallow="tram rail_urban rail rail_electric rail_fast ship" speed="3.65" length="4.67" shape="2364.38,1455.25 2365.13,1456.48 2365.15,1457.37 2364.45,1457.93 2363.03,1458.14"/>
    </edge>
    <edge id=":12103856393_6" function="internal">
        <lane id=":12103856393_6_0" index="0" disallow="tram rail_urban rail rail_electric rail_fast ship" speed="6.50" length="9.03" shape="2365.72,1465.59 2366.44,1463.22 2366.24,1461.19 2365.10,1459.50 2363.03,1458.14"/>
    </edge>
    <edge id=":12103856393_7" function="internal">
        <lane id=":12103856393_7_0" index="0" disallow="tram rail_urban rail rail_electric rail_fast ship" speed="13.89" length="14.37" shape="2365.72,1465.59 2371.97,1452.65"/>
    </edge>
    <edge id=":12103856393_8" function="internal">
        <lane id=":12103856393_8_0" index="0" disallow="tram rail_urban rail rail_electric rail_fast ship" speed="3.65" length="1.44" shape="2365.72,1465.59 2366.95,1464.84"/>
    </edge>
    <edge id=":12103856393_11" function="internal">
        <lane id=":12103856393_11_0" index="0" disallow="tram rail_urban rail rail_electric rail_fast ship" speed="3.65" length="3.23" shape="2366.95,1464.84 2367.85,1464.82 2368.40,1465.52 2368.61,1466.95"/>
    </edge>
    <edge id=":12103868979_0" function="internal">
        <lane id=":12103868979_0_0" index="0" disallow="tram rail_urban rail rail_electric rail_fast ship" speed="13.89" length="14.42" shape="1078.19,1035.44 1065.20,1029.18"/>
    </edge>
    <edge id=":12103868979_1" function="internal">
        <lane id=":12103868979_1_0" index="0" disallow="tram rail_urban rail rail_electric rail_fast ship" speed="8.01" length="4.08" shape="1078.19,1035.44 1074.96,1033.29 1074.86,1033.12"/>
    </edge>
    <edge id=":12103868979_2" function="internal">
        <lane id=":12103868979_2_0" index="0" disallow="tram rail_urban rail rail_electric rail_fast ship" speed="3.65" length="1.44" shape="1078.19,1035.44 1077.46,1034.20"/>
    </edge>
    <edge id=":12103868979_9" function="internal">
        <lane id=":12103868979_9_0" index="0" disallow="tram rail_urban rail rail_electric rail_fast ship" speed="8.01" length="10.13" shape="1074.86,1033.12 1073.20,1030.61 1072.89,1027.40 1074.06,1023.68"/>
    </edge>
    <edge id=":12103868979_10" function="internal">
        <lane id=":12103868979_10_0" index="0" disallow="tram rail_urban rail rail_electric rail_fast ship" speed="3.65" length="3.23" shape="1077.46,1034.20 1077.44,1033.31 1078.15,1032.76 1079.58,1032.56"/>
    </edge>
    <edge id=":12103868979_3" function="internal">
        <lane id=":12103868979_3_0" index="0" disallow="tram rail_urban rail rail_electric rail_fast ship" speed="6.52" length="9.06" shape="1076.95,1025.06 1076.20,1027.43 1076.40,1029.47 1077.52,1031.18 1079.58,1032.56"/>
    </edge>
    <edge id=":12103868979_4" function="internal">
        <lane id=":12103868979_4_0" index="0" disallow="tram rail_urban rail rail_electric rail_fast ship" speed="7.99" length="14.22" shape="1076.95,1025.06 1074.79,1028.31 1072.11,1030.08 1068.92,1030.37 1065.20,1029.18"/>
    </edge>
    <edge id=":12103868979_5" function="internal">
        <lane id=":12103868979_5_0" index="0" disallow="tram rail_urban rail rail_electric rail_fast ship" speed="3.65" length="4.67" shape="1076.95,1025.06 1075.71,1025.80 1074.81,1025.81 1074.26,1025.11 1074.06,1023.68"/>
    </edge>
    <edge id=":12103868979_6" function="internal">
        <lane id=":12103868979_6_0" index="0" disallow="tram rail_urban rail rail_electric rail_fast ship" speed="6.49" length="9.03" shape="1066.60,1026.30 1068.96,1027.06 1070.99,1026.87 1072.69,1025.75 1074.06,1023.68"/>
    </edge>
    <edge id=":12103868979_7" function="internal">
        <lane id=":12103868979_7_0" index="0" disallow="tram rail_urban rail rail_electric rail_fast ship" speed="13.89" length="14.41" shape="1066.60,1026.30 1079.58,1032.56"/>
    </edge>
    <edge id=":12103868979_8" function="internal">
        <lane id=":12103868979_8_0" index="0" disallow="tram rail_urban rail rail_electric rail_fast ship" speed="3.65" length="1.44" shape="1066.60,1026.30 1067.33,1027.55"/>
    </edge>
    <edge id=":12103868979_11" function="internal">
        <lane id=":12103868979_11_0" index="0" disallow="tram rail_urban rail rail_electric rail_fast ship" speed="3.65" length="3.23" shape="1067.33,1027.55 1067.34,1028.44 1066.63,1028.99 1065.20,1029.18"/>
    </edge>
    <edge id=":12103868980_0" function="internal">
        <lane id=":12103868980_0_0" index="0" disallow="tram rail_urban rail rail_electric rail_fast ship" speed="6.51" length="9.02" shape="1144.03,896.89 1141.67,896.16 1139.64,896.37 1137.94,897.49 1136.58,899.55"/>
    </edge>
    <edge id=":12103868980_1" function="internal">
        <lane id=":12103868980_1_0" index="0" disallow="tram rail_urban rail rail_electric rail_fast ship" speed="13.89" length="14.37" shape="1144.03,896.89 1131.06,890.71"/>
    </edge>
    <edge id=":12103868980_2" function="internal">
        <lane id=":12103868980_2_0" index="0" disallow="tram rail_urban rail rail_electric rail_fast ship" speed="3.65" length="1.44" shape="1144.03,896.89 1143.29,895.66"/>
    </edge>
    <edge id=":12103868980_9" function="internal">
        <lane id=":12103868980_9_0" index="0" disallow="tram rail_urban rail rail_electric rail_fast ship" speed="3.65" length="3.23" shape="1143.29,895.66 1143.27,894.76 1143.97,894.21 1145.40,894.00"/>
    </edge>
    <edge id=":12103868980_3" function="internal">
        <lane id=":12103868980_3_0" index="0" disallow="tram rail_urban rail rail_electric rail_fast ship" speed="13.89" length="14.35" shape="1132.45,887.83 1145.40,894.00"/>
    </edge>
    <edge id=":12103868980_4" function="internal">
        <lane id=":12103868980_4_0" index="0" disallow="tram rail_urban rail rail_electric rail_fast ship" speed="8.01" length="4.03" shape="1132.45,887.83 1135.67,889.99 1135.75,890.11"/>
    </edge>
    <edge id=":12103868980_5" function="internal">
        <lane id=":12103868980_5_0" index="0" disallow="tram rail_urban rail rail_electric rail_fast ship" speed="3.65" length="1.44" shape="1132.45,887.83 1133.18,889.07"/>
    </edge>
    <edge id=":12103868980_10" function="internal">
        <lane id=":12103868980_10_0" index="0" disallow="tram rail_urban rail rail_electric rail_fast ship" speed="8.01" length="10.13" shape="1135.75,890.11 1137.43,892.66 1137.73,895.85 1136.58,899.55"/>
    </edge>
    <edge id=":12103868980_11" function="internal">
        <lane id=":12103868980_11_0" index="0" disallow="tram rail_urban rail rail_electric rail_fast ship" speed="3.65" length="3.23" shape="1133.18,889.07 1133.19,889.96 1132.49,890.51 1131.06,890.71"/>
    </edge>
    <edge id=":12103868980_6" function="internal">